Check Keywords "Warn"

Header
Mesh DB "." "shoebox_tets"
End

Simulation
  Max Output Level = 5
  Coordinate System = "Cartesian"
  Simulation Type = Steady
  Steady State Max Iterations = 1
  Output Intervals(1) = 1
End

Body 1
  Equation = 1
  Material = 1
  ! Body Force = 1
  Initial Condition = 1
End

$ mu0 = 4e-7*pi
$ eps0 = 8.854187817e-12
$ c = 1/sqrt(mu0*eps0)
$ n = 1
$ a = 0.1   ! The distance of parallel planes
$ w = 2*pi*(2.5e9)
$ k0 = w/c
$ kc = n*pi/a
$ beta0 = sqrt(k0^2-kc^2)

! The above parameters give the following numerical values: 
!
! $ k0=52.3961255469564
! $ beta0=41.9332032192090 
! $ kc=31.4159265358979 


Material 1
  Relative Permittivity = Real 1
End

Equation 1
  Active Solvers(2) = 1 2
  Angular Frequency = Real $w
End

Solver 1
  Equation = "VectorHelmholtz"
  Procedure = "VectorHelmholtz" "VectorHelmholtzSolver"

  Use Piola Transform = Logical True
!  Quadratic Approximation = True
!  Optimize Bandwidth = True
!  Bubbles in Global System = True
  Linear System Symmetric = False
  Linear System Scaling = True

  Linear System Solver = String "Iterative"
  !Linear System Solver = String "Direct"
  Linear System Iterative Method = String "bicgstabl"
  BiCGstabl polynomial degree = Integer 4
  Linear System Preconditioning Damp Coefficient = Real 0.0
  Linear System Preconditioning Damp Coefficient im = Real -1
  Mass-proportional Damping = True
  Linear System Preconditioning = String "ILU0"
  Linear System ILUT Tolerance = Real 3e-3
  Linear System Max Iterations = Integer 4000
  Linear System Convergence Tolerance = 1.0e-7
  Linear System abort not converged = false

  Steady State Convergence Tolerance = 1e-09
  Linear System Residual Output = 10
  Nonlinear System Max Iterations = 1
End

Solver 2
  Equation = "calcfields"

  Procedure = "VectorHelmholtz" "VectorHelmholtzCalcFields"

  Calculate Elemental Fields = False
  Calculate Nodal Fields = True
  Calculate Electric field = True
  Calculate Energy Functional = Logical True

  Steady State Convergence Tolerance = 1
  Linear System Solver = "Iterative"
  Linear System Preconditioning = None
  Linear System Residual Output = 10
  Linear System Max Iterations = 5000
  Linear System Iterative Method = CG
  Linear System Convergence Tolerance = 1.0e-9
End

Solver 3
  Equation = "SaveScalars"
  Procedure = "SaveData" "SaveScalars"
  FileName = "scalar_values.dat"
End

Solver 4
!  Exec Solver = never
  !Equation = VtuOutput
  Equation = "result output"
  Procedure = "ResultOutputSolve" "ResultOutputSolver"
  Output File Name = pec
  Vtu Format = Logical True
  Save Geometry Ids = True
  Ascii Output = True
  !GMSH Format = Logical True
  !Single Precision = Logical True
  !Save Bulk Only = True
End 

Boundary Condition 1
  Target Boundaries(1) = 1

  Electric Robin Coefficient im = Real $ beta0
  Magnetic Boundary Load Im 2 = Variable Coordinate 1
    Real MATC "2*beta0*sin(kc*tx)"  
End

Boundary Condition 2
  Target Boundaries(1) = 6
  Absorbing BC = True
End

Boundary Condition 3
  Target Boundaries(2) = 2 4

  E re {e} = Real 0
  E im {e} = Real 0
End

Boundary Condition 4
  Target Boundaries(2) = 3 5

  E re {e} = Real 0
  E im {e} = Real 0
End


Solver 1 :: Reference Norm = 3.08826394E-03
Solver 1 :: Reference Norm Tolerance = 1e-3
!Solver 2 :: Reference Norm = 2.32743791E-03
!Solver 2 :: Reference Norm Tolerance = 1e-3
